Circuit: * B:\COLLEGE\20_21\Fall20\CES400\Projects\Project2\ltspice\Draft1.asc

Direct Newton iteration for .op point succeeded.

Date: Mon Oct 19 14:56:38 2020
Total elapsed time: 0.560 seconds.

tnom = 27
temp = 27
method = modified trap
totiter = 48803
traniter = 48792
tranpoints = 21165
accept = 14035
rejected = 7130
matrix size = 39
fillins = 39
solver = Normal
Matrix Compiler1: 3.72 KB object code size  0.9/0.4/[0.2]
Matrix Compiler2: 3.83 KB object code size  0.3/0.4/[0.3]

